*HEADING
WP13-05 bounded HEX8 fixture
*NODE
1, 0., 0., 0.
2, 1., 0., 0.
3, 1., 1., 0.
4, 0., 1., 0.
5, 0., 0., 1.
6, 1., 0., 1.
7, 1., 1., 1.
8, 0., 1., 1.
*ELEMENT, TYPE=C3D8
1, 1, 2, 3, 4, 5, 6, 7, 8
*ELSET, ELSET=EALL
1
*MATERIAL, NAME=STEEL
*ELASTIC
210000000000., 0.3
*SOLID SECTION, ELSET=EALL, MATERIAL=STEEL
*NSET, NSET=FIX
1, 2, 3, 4
*STEP
*STATIC
*BOUNDARY
FIX, 1, 3, 0.
*CLOAD
5, 3, 1000.
*END STEP
