*HEADING
WP13-05 connected mixed TET4/WEDGE6/HEX8 fixture
*NODE
1, 0., 0., 0.
2, 0., 1., 0.
3, 0., 0., 1.
4, -1., 0., 0.
5, -1., 1., 0.
6, -1., 0., 1.
7, 1., 0., 0.
8, 0., 0., -1.
9, 0., 1., -1.
10, -1., 1., -1.
11, -1., 0., -1.
*ELEMENT, TYPE=C3D4
1, 1, 2, 3, 7
*ELEMENT, TYPE=C3D6
2, 1, 3, 2, 4, 6, 5
*ELEMENT, TYPE=C3D8
3, 1, 4, 5, 2, 8, 11, 10, 9
*ELSET, ELSET=ETET
1
*ELSET, ELSET=EWEDGE
2
*ELSET, ELSET=EHEX
3
*MATERIAL, NAME=STEEL
*ELASTIC
210000000000., 0.3
*SOLID SECTION, ELSET=ETET, MATERIAL=STEEL
*SOLID SECTION, ELSET=EWEDGE, MATERIAL=STEEL
*SOLID SECTION, ELSET=EHEX, MATERIAL=STEEL
*NSET, NSET=FIX, GENERATE
8, 11, 1
*NSET, NSET=LOAD
7
*STEP
*STATIC
*BOUNDARY
FIX, 1, 3, 0.
*CLOAD
LOAD, 3, 1000.
*END STEP
