*HEADING
WP13-05 bounded TET4 fixture
*NODE
1, 0., 0., 0.
2, 1., 0., 0.
3, 0., 1., 0.
4, 0., 0., 1.
*ELEMENT, TYPE=C3D4
1, 1, 2, 3, 4
*ELSET, ELSET=EALL, GENERATE
1, 1, 1
*MATERIAL, NAME=STEEL
*ELASTIC
210000000000., 0.3
*SOLID SECTION, ELSET=EALL, MATERIAL=STEEL
*NSET, NSET=FIX
1, 2, 3
*STEP
*STATIC
*BOUNDARY
FIX, 1, 3, 0.
*CLOAD
4, 3, 1000.
*END STEP
