*HEADING
WP13-05 bounded WEDGE6 fixture
*NODE
1, 0., 0., 0.
2, 0., 1., 0.
3, 0., 0., 1.
4, -1., 0., 0.
5, -1., 1., 0.
6, -1., 0., 1.
*ELEMENT, TYPE=C3D6
1, 1, 3, 2, 4, 6, 5
*ELSET, ELSET=EALL
1
*MATERIAL, NAME=STEEL
*ELASTIC
120000000000., 0.3
*SOLID SECTION, ELSET=EALL, MATERIAL=STEEL
*NSET, NSET=FIX
1, 2, 3
*STEP
*STATIC
*BOUNDARY
FIX, 1, 3, 0.
*CLOAD
4, 1, 1000.
*END STEP
