# coding=utf-8
import json
import numpy as np
from code_aster.Commands import *

DEBUT(CODE="OUI", ERREUR=_F(ALARME="EXCEPTION"))
mesh = LIRE_MAILLAGE(FORMAT="ASTER", UNITE=20)
model = AFFE_MODELE(
    MAILLAGE=mesh,
    AFFE=_F(GROUP_MA="SOLID", PHENOMENE="MECANIQUE", MODELISATION="3D"),
)
material = DEFI_MATERIAU(ELAS=_F(E=100.0, NU=0.3))
field = AFFE_MATERIAU(MAILLAGE=mesh, AFFE=_F(GROUP_MA="SOLID", MATER=material))
fixed = AFFE_CHAR_MECA(
    MODELE=model,
    DDL_IMPO=(
        _F(GROUP_NO="FIXED", DX=0.0, DY=0.0, DZ=0.0),
        _F(GROUP_NO="CROWN", DY=0.0),
    ),
)
load = AFFE_CHAR_MECA(
    MODELE=model,
    FORCE_NODALE=_F(GROUP_NO="CROWN", FZ=-0.33333333333333331),
)
times = DEFI_LIST_REEL(
    DEBUT=0.0,
    INTERVALLE=_F(JUSQU_A=1, NOMBRE=80),
)
result = STAT_NON_LINE(
    MODELE=model,
    CHAM_MATER=field,
    EXCIT=(
        _F(CHARGE=fixed),
        _F(CHARGE=load, TYPE_CHARGE="FIXE_PILO"),
    ),
    COMPORTEMENT=_F(RELATION="ELAS", DEFORMATION="GREEN_LAGRANGE"),
    INCREMENT=_F(LIST_INST=times),
    NEWTON=_F(MATRICE="TANGENTE", REAC_ITER=1),
    PILOTAGE=_F(
        TYPE="LONG_ARC",
        COEF_MULT=1.0,
        ETA_PILO_MAX=50.0,
        ETA_PILO_MIN=-5.0,
        SELECTION="ANGL_INCR_DEPL",
        GROUP_NO="APEX",
        NOM_CMP=("DZ",),
    ),
    CONVERGENCE=_F(RESI_GLOB_RELA=1.0e-8, ITER_GLOB_MAXI=80),
    SOLVEUR=_F(METHODE="MUMPS"),
)
result = CALC_CHAMP(reuse=result, RESULTAT=result, FORCE="FORC_NODA")
eta = RECU_FONCTION(RESULTAT=result, NOM_PARA_RESU="ETA_PILOTAGE", TOUT_ORDRE="OUI")
eta_values = eta.getValuesAsArray().tolist()
access = result.getAccessParameters()
points = []
for order, instant in zip(result.getIndexes(), access["INST"]):
    displacement = result.getField("DEPL", order)
    dz, dz_description = displacement.getValuesWithDescription("DZ", ["CROWN"])
    apex_dz, apex_description = displacement.getValuesWithDescription("DZ", ["APEX"])
    reaction = result.getField("FORC_NODA", order)
    fixed_dz, fixed_description = reaction.getValuesWithDescription("DZ", ["FIXED"])
    points.append({
        "order": int(order),
        "instant": float(instant),
        "displacement_values": np.asarray(dz, dtype=float).tolist(),
        "displacement_description": [list(item) for item in dz_description if isinstance(item, tuple)],
        "apex_displacement_values": np.asarray(apex_dz, dtype=float).tolist(),
        "apex_displacement_description": [list(item) for item in apex_description if isinstance(item, tuple)],
        "reaction_values": np.asarray(fixed_dz, dtype=float).tolist(),
        "reaction_description": [list(item) for item in fixed_description if isinstance(item, tuple)],
        "control_displacement": float(np.mean(apex_dz)),
        "crown_mean_displacement": float(np.mean(dz)),
        "reaction_fixed_z": float(np.sum(fixed_dz)),
        "load_factor_from_reaction": float(-np.sum(fixed_dz)),
    })
with open("/work/code_aster_arc_length_raw.json", "w", encoding="utf-8") as stream:
    json.dump({"eta_pilotage": eta_values, "points": points}, stream, indent=2)
FIN()
