# coding=utf-8
import json
from code_aster.Commands import *

DEBUT(CODE="OUI", ERREUR=_F(ALARME="EXCEPTION"))
mesh = LIRE_MAILLAGE(FORMAT="ASTER", UNITE=20)
model = AFFE_MODELE(MAILLAGE=mesh, AFFE=_F(GROUP_MA="SOLID", PHENOMENE="MECANIQUE", MODELISATION="3D"))
material = DEFI_MATERIAU(ELAS=_F(E=1.0e6, NU=0.3))
field = AFFE_MATERIAU(MAILLAGE=mesh, AFFE=_F(GROUP_MA="SOLID", MATER=material))
fixed = AFFE_CHAR_MECA(MODELE=model, DDL_IMPO=_F(GROUP_NO="FIXED", DX=0.0, DY=0.0, DZ=0.0))
load = AFFE_CHAR_MECA(MODELE=model, FORCE_NODALE=_F(GROUP_NO="TIP", FX=-35.69508781817938))
ramp = DEFI_FONCTION(NOM_PARA="INST", VALE=(0.0, 0.0, 1.0, 1.0))
times = DEFI_LIST_REEL(DEBUT=0.0, INTERVALLE=_F(JUSQU_A=1.0, NOMBRE=4))
result = STAT_NON_LINE(
    MODELE=model, CHAM_MATER=field,
    EXCIT=(_F(CHARGE=fixed), _F(CHARGE=load, FONC_MULT=ramp)),
    COMPORTEMENT=_F(RELATION="ELAS", DEFORMATION="GREEN_LAGRANGE"),
    INCREMENT=_F(LIST_INST=times),
    CONVERGENCE=_F(RESI_GLOB_RELA=1.0e-9, ITER_GLOB_MAXI=40),
)
raw = {"points": []}
access = result.getAccessParameters()
for order, instant in zip(result.getIndexes(), access["INST"]):
    if instant <= 0.0:
        continue
    displacement = result.getField("DEPL", order)
    dx, _ = displacement.getValuesWithDescription("DX", ["TIP"])
    dz, _ = displacement.getValuesWithDescription("DZ", ["TIP"])
    raw["points"].append({
        "load_fraction_critical": 0.8 * float(instant),
        "tip_axial_x": sum(dx) / len(dx),
        "tip_increment_z": sum(dz) / len(dz),
    })
with open("/work/code_aster_column_raw.json", "w", encoding="utf-8") as stream:
    json.dump(raw, stream, indent=2)
FIN()
