*HEADING
QF_solver HEX8 same-mesh CalculiX C3D8 correlation
*NODE
1,0,0,0
2,5,0,0
3,10,0,0
4,0,0.5,0
5,5,0.5,0
6,10,0.5,0
7,0,1,0
8,5,1,0
9,10,1,0
10,0,0,0.5
11,5,0,0.5
12,10,0,0.5
13,0,0.5,0.5
14,5,0.5,0.5
15,10,0.5,0.5
16,0,1,0.5
17,5,1,0.5
18,10,1,0.5
19,0,0,1
20,5,0,1
** ... 7 like lines cut
*ELEMENT,TYPE=C3D8,ELSET=EALL
1,1,2,5,4,10,11,14,13
2,2,3,6,5,11,12,15,14
3,4,5,8,7,13,14,17,16
4,5,6,9,8,14,15,18,17
5,10,11,14,13,19,20,23,22
6,11,12,15,14,20,21,24,23
7,13,14,17,16,22,23,26,25
8,14,15,18,17,23,24,27,26
*SOLID SECTION,ELSET=EALL,MATERIAL=MAT
*MATERIAL,NAME=MAT
*ELASTIC
210000000000,0.3
*BOUNDARY
1,1,1,0.
1,2,2,0.
1,3,3,0.
4,1,1,0.
4,2,2,0.
4,3,3,0.
7,1,1,0.
7,2,2,0.
7,3,3,0.
10,1,1,0.
10,2,2,0.
10,3,3,0.
13,1,1,0.
13,2,2,0.
13,3,3,0.
16,1,1,0.
16,2,2,0.
16,3,3,0.
19,1,1,0.
19,2,2,0.
** ... 7 like lines cut
*STEP
*STATIC
0.1,1.0,1.E-8,0.1
*CLOAD
3,3,-111111.111111
6,3,-111111.111111
9,3,-111111.111111
12,3,-111111.111111
15,3,-111111.111111
18,3,-111111.111111
21,3,-111111.111111
24,3,-111111.111111
27,3,-111111.111111
*NODE FILE,FREQUENCY=1
U
*END STEP
