*HEADING
QF_solver HEX8 same-mesh CalculiX C3D8 correlation
*NODE
1,0,0,0
2,1.25,0,0
3,2.5,0,0
4,3.75,0,0
5,5,0,0
6,6.25,0,0
7,7.5,0,0
8,8.75,0,0
9,10,0,0
10,0,0.5,0
11,1.25,0.5,0
12,2.5,0.5,0
13,3.75,0.5,0
14,5,0.5,0
15,6.25,0.5,0
16,7.5,0.5,0
17,8.75,0.5,0
18,10,0.5,0
19,0,1,0
20,1.25,1,0
** ... 61 like lines cut
*ELEMENT,TYPE=C3D8,ELSET=EALL
1,1,2,11,10,28,29,38,37
2,2,3,12,11,29,30,39,38
3,3,4,13,12,30,31,40,39
4,4,5,14,13,31,32,41,40
5,5,6,15,14,32,33,42,41
6,6,7,16,15,33,34,43,42
7,7,8,17,16,34,35,44,43
8,8,9,18,17,35,36,45,44
9,10,11,20,19,37,38,47,46
10,11,12,21,20,38,39,48,47
11,12,13,22,21,39,40,49,48
12,13,14,23,22,40,41,50,49
13,14,15,24,23,41,42,51,50
14,15,16,25,24,42,43,52,51
15,16,17,26,25,43,44,53,52
16,17,18,27,26,44,45,54,53
17,28,29,38,37,55,56,65,64
18,29,30,39,38,56,57,66,65
19,30,31,40,39,57,58,67,66
20,31,32,41,40,58,59,68,67
** ... 12 like lines cut
*SOLID SECTION,ELSET=EALL,MATERIAL=MAT
*MATERIAL,NAME=MAT
*ELASTIC
210000000000,0.3
*BOUNDARY
1,1,1,0.
1,2,2,0.
1,3,3,0.
10,1,1,0.
10,2,2,0.
10,3,3,0.
19,1,1,0.
19,2,2,0.
19,3,3,0.
28,1,1,0.
28,2,2,0.
28,3,3,0.
37,1,1,0.
37,2,2,0.
37,3,3,0.
46,1,1,0.
46,2,2,0.
46,3,3,0.
55,1,1,0.
55,2,2,0.
** ... 7 like lines cut
*STEP
*STATIC
0.1,1.0,1.E-8,0.1
*CLOAD
9,3,-111111.111111
18,3,-111111.111111
27,3,-111111.111111
36,3,-111111.111111
45,3,-111111.111111
54,3,-111111.111111
63,3,-111111.111111
72,3,-111111.111111
81,3,-111111.111111
*NODE FILE,FREQUENCY=1
U
*END STEP
