*HEADING
QF contact block pre-contact probe
*NODE
1,0.1,-0.5,-0.5
2,0.1,-0.5,-0.25
3,0.1,-0.5,0
4,0.1,-0.5,0.25
5,0.1,-0.5,0.5
6,0.1,-0.25,-0.5
7,0.1,-0.25,-0.25
8,0.1,-0.25,0
9,0.1,-0.25,0.25
10,0.1,-0.25,0.5
11,0.1,0,-0.5
12,0.1,0,-0.25
13,0.1,0,0
14,0.1,0,0.25
15,0.1,0,0.5
16,0.1,0.25,-0.5
17,0.1,0.25,-0.25
18,0.1,0.25,0
19,0.1,0.25,0.25
20,0.1,0.25,0.5
** ... 205 like lines cut
*ELEMENT,TYPE=C3D4,ELSET=EALL
1,1,26,31,32
2,1,31,6,32
3,1,6,7,32
4,1,7,2,32
5,1,2,27,32
6,1,27,26,32
7,2,27,32,33
8,2,32,7,33
9,2,7,8,33
10,2,8,3,33
11,2,3,28,33
12,2,28,27,33
13,3,28,33,34
14,3,33,8,34
15,3,8,9,34
16,3,9,4,34
17,3,4,29,34
18,3,29,28,34
19,4,29,34,35
20,4,34,9,35
** ... 748 like lines cut
*NSET,NSET=FIXED
201,202,203,204,205,206,207,208,209,210,211,212,213,214,215,216
217,218,219,220,221,222,223,224,225
*NSET,NSET=SLAVE_1
7
*NSET,NSET=SLAVE_2
19
*MATERIAL,NAME=ISO
*ELASTIC
10000.,0.3
*SOLID SECTION,ELSET=EALL,MATERIAL=ISO
*BOUNDARY
FIXED,1,3,0.
*STEP
*STATIC
*CLOAD
SLAVE_1,1,-200.
SLAVE_2,1,-200.
*NODE FILE
U
*END STEP
